hello my name is drew
okay.
new line.
create conflict

