hello my name is drew
okay.
new line.
well i am going to change to this
